Circuit: * C:\Users\karab\OneDrive\Documents\GitHub\EE463_Project_Onur_Halis_Halid\3854.asc

WARNING: Less than two connections to node NC_01.  This node is used by R5.
Direct Newton iteration for .op point succeeded.
Heightened Def Con from 0.00195509 to 0.00195509
Heightened Def Con from 0.00203762 to 0.00203763

Date: Tue Jan 05 14:57:50 2021
Total elapsed time: 13.101 seconds.

tnom = 27
temp = 27
method = modified trap
totiter = 1435137
traniter = 1435118
tranpoints = 401910
accept = 319031
rejected = 82881
matrix size = 54
fillins = 11
solver = Normal
Thread vector: 6.6/3.2[2] 2.5/2.0[2] 0.6/0.4[2] 0.2/0.5[1]  2592/500
Matrix Compiler1: 2.60 KB object code size  0.5/0.3/[0.2]
Matrix Compiler2: 3.60 KB object code size  0.3/0.4/[0.2]

