Circuit: * C:\Users\karab\OneDrive\Documents\GitHub\EE463_Project_Onur_Halis_Halid\Draft3.asc

Per .tran options, skipping operating point for transient analysis.

Date: Sun Jan 10 02:11:25 2021
Total elapsed time: 68.952 seconds.

tnom = 27
temp = 27
method = modified trap
totiter = 82447226
traniter = 82447226
tranpoints = 27200849
accept = 23050850
rejected = 4149999
matrix size = 8
fillins = 0
solver = Normal
Matrix Compiler1: 228 bytes object code size  0.1/0.1/[0.0]
Matrix Compiler2: 492 bytes object code size  0.1/0.1/[0.1]

