Circuit: * C:\Users\karab\OneDrive\Documents\GitHub\EE463_Project_Onur_Halis_Halid\Draft4.asc

WARNING: Less than two connections to node N004.  This node is used by V1.
Direct Newton iteration for .op point succeeded.

Date: Mon Dec 21 17:05:29 2020
Total elapsed time: 0.056 seconds.

tnom = 27
temp = 27
method = modified trap
totiter = 2921
traniter = 2889
tranpoints = 1154
accept = 1123
rejected = 31
matrix size = 6
fillins = 0
solver = Normal
Matrix Compiler1: 128 bytes object code size  0.0/0.0/[0.0]
Matrix Compiler2: 320 bytes object code size  0.0/0.0/[0.0]

