Circuit: * C:\Users\karab\OneDrive\Documents\GitHub\EE463_Project_Onur_Halis_Halid\Draft2.asc

Direct Newton iteration for .op point succeeded.

Date: Tue Dec 22 20:10:07 2020
Total elapsed time: 110.763 seconds.

tnom = 27
temp = 27
method = modified trap
totiter = 90145546
traniter = 90145508
tranpoints = 15678565
accept = 11762179
rejected = 3916386
matrix size = 12
fillins = 1
solver = Normal
Matrix Compiler1: 598 bytes object code size  0.2/0.1/[0.1]
Matrix Compiler2: 894 bytes object code size  0.1/0.2/[0.1]

