Circuit: * C:\Users\karab\OneDrive\Documents\GitHub\EE463_Project_Onur_Halis_Halid\Draft4.asc

Per .tran options, skipping operating point for transient analysis.

Date: Mon Jan 11 01:10:47 2021
Total elapsed time: 5.585 seconds.

tnom = 27
temp = 27
method = modified trap
totiter = 5945005
traniter = 5945005
tranpoints = 1731754
accept = 1443772
rejected = 287982
matrix size = 11
fillins = 0
solver = Normal
Matrix Compiler1:      28 opcodes  0.1/[0.1]/0.1
Matrix Compiler2: 779 bytes object code size  0.1/0.1/[0.1]

