Circuit: * C:\Users\karab\OneDrive\Documents\GitHub\EE463_Project_Onur_Halis_Halid\ltspice_test.asc

WARNING: Less than two connections to node V-.  This node is used by V3.
WARNING: Less than two connections to node NC_02.  This node is used by R7.
Per .tran options, skipping operating point for transient analysis.
Heightened Def Con from 0.00145868 to 0.00145869
Heightened Def Con from 0.00343737 to 0.00343738
Heightened Def Con from 0.00343743 to 0.00343743
Heightened Def Con from 0.00343743 to 0.00343743
Heightened Def Con from 0.00343747 to 0.00343747
Heightened Def Con from 0.00346189 to 0.0034619
Heightened Def Con from 0.00346196 to 0.00346196
Heightened Def Con from 0.00785739 to 0.00785739
Heightened Def Con from 0.00835617 to 0.00835617
Heightened Def Con from 0.0160359 to 0.0160359
Heightened Def Con from 0.0231797 to 0.0231797
Heightened Def Con from 0.0297563 to 0.0297563
Heightened Def Con from 0.0312775 to 0.0312775
Heightened Def Con from 0.0367278 to 0.0367278
Heightened Def Con from 0.0490196 to 0.0490196
Heightened Def Con from 0.0513728 to 0.0513728
Heightened Def Con from 0.0552457 to 0.0552457
Heightened Def Con from 0.0628493 to 0.0628493
Heightened Def Con from 0.0638198 to 0.0638198
Heightened Def Con from 0.0728177 to 0.0728177
Heightened Def Con from 0.0738325 to 0.0738325
Heightened Def Con from 0.0761993 to 0.0761993
Heightened Def Con from 0.0816459 to 0.0816459
Heightened Def Con from 0.0828529 to 0.0828529
Heightened Def Con from 0.0866309 to 0.0866309
Heightened Def Con from 0.0923348 to 0.0923348

Date: Mon Dec 21 23:46:10 2020
Total elapsed time: 36.848 seconds.

tnom = 27
temp = 25
method = modified trap
totiter = 5936102
traniter = 5936102
tranpoints = 1726697
accept = 1243780
rejected = 482943
matrix size = 38
fillins = 3
solver = Normal
Thread vector: 4.3/2.9[2] 1.3/1.2[1] 0.9/0.8[2] 0.1/0.5[1]  2592/500
Matrix Compiler1: 1.55 KB object code size  0.3/0.2/[0.1]
Matrix Compiler2: 2.70 KB object code size  0.2/0.3/[0.1]

