Circuit: * C:\Users\karab\OneDrive\Documents\GitHub\EE463_Project_Onur_Halis_Halid\ltspice_test.asc

WARNING: Less than two connections to node V-.  This node is used by V3.
Direct Newton iteration for .op point succeeded.
Heightened Def Con from 1.06097e-007 ++++++++++++++++++++++++++++++++++++++++++++++++++Fatal Error: Analysis:  Time step too small; time = 1.06097e-007, timestep = 1.25e-019: trouble with u2:n-instance m:u2:1

