Circuit: * C:\Users\karab\OneDrive\Documents\GitHub\EE463_Project_Onur_Halis_Halid\TL494.asc

Per .tran options, skipping operating point for transient analysis.
Ignoring empty pin current: Ix(u1:gnd)
Changing Tseed to 1e-008
Changing Tseed to 1e-010
Heightened Def Con from 0.123029 to 0.123029

Date: Mon Dec 28 21:11:48 2020
Total elapsed time: 4.050 seconds.

tnom = 27
temp = 27
method = modified trap
totiter = 437792
traniter = 437792
tranpoints = 107668
accept = 74332
rejected = 33335
matrix size = 80
fillins = 31
solver = Normal
Thread vector: 4.3/3.4[2] 2.1/1.6[2] 0.4/0.5[1] 0.2/0.7[1]  2592/500
Matrix Compiler1: 4.68 KB object code size  0.8/0.5/[0.2]
Matrix Compiler2: 5.91 KB object code size  0.4/0.7/[0.2]

